[General]
network = SourceSink
sim-time-limit = 60s

[SourceSink_uniform]
**.source.sendInterval = intuniform(1s,10s)

[SourceSink_normal]
**.source.sendInterval = normal(5s,2s)